** written by FreeCAD inp file writer for CalculiX,Abaqus meshes
** highest dimension mesh elements only.

** Nodes
*Node, NSET=Nall
1, 1000, 200, 0
2, 1000, 200, 100
3, 1000, 0, 0
4, 1000, 0, 100
5, 0, 200, 0
6, 0, 200, 100
7, 0, 0, 0
8, 0, 0, 100
9, 0, 20.2, 100
10, 0, 40.2, 100
11, 0, 60.2, 100
12, 0, 80.2, 100
13, 0, 100.2, 100
14, 0, 120.2, 100
15, 0, 140.2, 100
16, 0, 160.2, 100
17, 0, 180.2, 100
18, 20, 200, 100
19, 40, 200, 100
20, 60, 200, 100
** ... 18586 like lines cut


** Volume elements
*Element, TYPE=C3D10, ELSET=Evolumes
3919, 2009, 1610, 1710, 1611, 8331, 7812, 8332, 8333, 7511, 7813
3920, 606, 506, 507, 2185, 4170, 3868, 4171, 8335, 8334, 8336
3921, 2311, 2754, 2185, 2184, 8337, 8338, 8340, 8341, 8339, 8342
3922, 314, 2083, 368, 426, 8343, 8344, 3442, 3619, 8345, 3620
3923, 2334, 1161, 2808, 2810, 8346, 8347, 8349, 8350, 8348, 8351
3924, 2300, 2554, 2590, 2298, 8352, 8353, 8355, 8356, 8354, 8357
3925, 637, 1997, 541, 540, 8358, 8359, 4263, 4264, 8360, 3972
3926, 595, 2178, 596, 2295, 8361, 8362, 4142, 8364, 8363, 8365
3927, 947, 1926, 1048, 1924, 8366, 8367, 5606, 8369, 8368, 8370
3928, 434, 2613, 1976, 1972, 8371, 8372, 8374, 8375, 8373, 8376
3929, 637, 1997, 2223, 541, 8358, 8377, 8378, 4263, 8359, 8379
3930, 336, 446, 337, 2001, 3680, 3679, 3348, 8381, 8380, 8382
3931, 637, 1997, 2219, 2223, 8358, 8383, 8384, 8378, 8377, 8385
3932, 768, 2286, 684, 769, 8386, 8387, 4665, 4669, 8388, 4667
3933, 2511, 1284, 1239, 1240, 8389, 6425, 8390, 8391, 6424, 6198
3934, 277, 1358, 30, 1359, 8392, 6643, 3166, 8393, 6648, 6647
3935, 595, 2178, 496, 596, 8361, 8394, 4138, 4142, 8362, 4140
3936, 1663, 2103, 1562, 1561, 8395, 8396, 7667, 7668, 8397, 7362
3937, 892, 893, 2112, 217, 5133, 8398, 8399, 5129, 5131, 8400
3938, 595, 2178, 2176, 496, 8361, 8401, 8402, 4138, 8394, 8403
** ... 11072 like lines cut

** Define element set Eall
*ELSET, ELSET=Eall
Evolumes



***********************************************************
** Element sets for materials and FEM element type (solid, shell, beam, fluid)
*ELSET,ELSET=MaterialSolidSolid
Evolumes

** Physical constants for SI(mm) unit system with Kelvins
*PHYSICAL CONSTANTS, ABSOLUTE ZERO=0, STEFAN BOLTZMANN=5.670374419e-11

***********************************************************
** Materials
** see information about units at file end
** FreeCAD material name: AlMg3F24
** MaterialSolid
*MATERIAL, NAME=MaterialSolid
*ELASTIC
70000,0.3
*DENSITY
2.7E-09

***********************************************************
** Sections
*SOLID SECTION, ELSET=MaterialSolidSolid, MATERIAL=MaterialSolid

***********************************************************
** At least one step is needed to run an CalculiX analysis of FreeCAD
*STEP
*FREQUENCY,SOLVER=SPOOLES
10,0.0,1000000.0


***********************************************************
** Outputs --> frd file
*NODE FILE
U
*EL FILE
S, E
*OUTPUT, FREQUENCY=1
***********************************************************
*END STEP

***********************************************************
** CalculiX Input file
**   written by    --> FreeCAD 0.22.0
**   written on    --> Tue Jul 30 19:06:23 2024
**   file name     --> 
**   analysis name --> Analysis
**
**
***********************************************************
**  About units:
**  See ccx manual, ccx does not know about any unit.
**  Golden rule: The user must make sure that the numbers they provide have consistent units.
**  The user is the FreeCAD calculix writer module ;-)
**
**  The unit system which is used at Guido Dhondt's company: mm, N, s, K
**  Since Length and Mass are connected by Force, if Length is mm the Mass is in t to get N
**  The following units are used to write to inp file:
**
**  Length: mm (this includes the mesh geometry)
**  Mass: t
**  TimeSpan: s
**  Temperature: K
**
**  This leads to:
**  Force: N
**  Pressure: N/mm^2 == MPa (Young's Modulus has unit Pressure)
**  Density: t/mm^3
**  Gravity: mm/s^2
**  Thermal conductivity: t*mm/K/s^3 == as W/m/K == kW/mm/K
**  Specific Heat: mm^2/s^2/K = J/kg/K == kJ/t/K
**
